13

C -2.00861   2.12329   2.71423 
C -2.13619   2.02111   3.52290 
C -1.81206   1.37010   3.91266 
C -1.36039   0.82134   3.49370 
C -1.23285   0.92355   2.68512 
C -1.55698   1.57456   2.29536 
N -1.33903   1.53045   1.50082 
N -0.81464   0.47720   2.13140 
C -0.88026   0.85225   1.39957 
N -0.54584   0.59443   0.69083 
C -0.65931   1.02926  -0.00106 
N -1.10720   1.72192   0.01579 
N -0.34231   0.80587  -0.72927 
