13

C 0.6802251  -0.76493128 0 
C 0.31079594 -1.22010349 0
C 0.51162288 -1.28551781 0
C 0.9645189  -0.89574486 0
C 0.59508682 -0.44063421 0
C 0.227332   -0.37521989 0
N 0.43557224  0.10897326 0
N 0.89499069  0.00314698 0
C 0.25808257  0.34276509 0
N 0.30627085  0.83056898 0
C 0.38180969  1.1311226  0
N 1.11808686  0.94386685 0
N 0.37675089  1.62170777 0
